1p9u
  DSViewer          3D                             0

 45 44  0  0  0  0  0  0  0  0999 V2000
   51.7800   64.7420   86.0640 N   0  0  0  0  0  0  0  0  0
   52.2510   63.3660   85.9520 C   0  0  0  0  0  0  0  0  0
   53.2920   63.2580   84.8460 C   0  0  0  0  0  0  0  0  0
   53.2050   63.9560   83.8320 O   0  0  0  0  0  0  0  0  0
   51.0880   62.3980   85.6300 C   0  0  0  0  0  0  0  0  0
   51.5960   60.9580   85.6080 C   0  0  0  0  0  0  0  0  0
   49.9730   62.5570   86.6610 C   0  0  0  0  0  0  0  0  0
   54.2530   62.3560   85.0290 N   0  0  0  0  0  0  0  0  0
   54.9550   61.7620   83.8960 C   0  0  0  0  0  0  0  0  0
   55.8050   60.5630   84.3440 C   0  0  0  0  0  0  0  0  0
   55.2880   59.6630   85.0060 O   0  0  0  0  0  0  0  0  0
   55.8240   62.8320   83.2220 C   0  0  0  0  0  0  0  0  0
   56.2950   62.4240   81.8360 C   0  0  0  0  0  0  0  0  0
   55.4930   62.0940   80.9650 O   0  0  0  0  0  0  0  0  0
   57.6020   62.4580   81.6260 N   0  0  0  0  0  0  0  0  0
   56.9930   60.4250   83.7580 N   0  0  0  0  0  0  0  0  0
   57.3510   59.2230   83.0020 C   0  0  0  0  0  0  0  0  0
   57.5430   58.0050   83.8940 C   0  0  0  0  0  0  0  0  0
   58.1990   58.0940   84.9350 O   0  0  0  0  0  0  0  0  0
   58.6320   59.4570   82.1970 C   0  0  0  0  0  0  0  0  0
   58.3850   60.2350   81.0420 O   0  0  0  0  0  0  0  0  0
   57.2380   56.8410   83.3320 N   0  0  0  0  0  0  0  0  0
   57.6950   55.5720   83.8850 C   0  0  0  0  0  0  0  0  0
   58.6500   54.8920   82.9090 C   0  0  0  0  0  0  0  0  0
   58.2290   54.4560   81.8350 O   0  0  0  0  0  0  0  0  0
   56.5160   54.6140   84.1330 C   0  0  0  0  0  0  0  0  0
   55.4750   55.3030   84.8350 O   0  0  0  0  0  0  0  0  0
   56.9730   53.4150   84.9610 C   0  0  0  0  0  0  0  0  0
   59.8870   54.6670   83.3510 N   0  0  0  0  0  0  0  0  0
   60.7960   53.7560   82.6590 C   0  0  0  0  0  0  0  0  0
   60.3680   52.3150   82.8600 C   0  0  0  0  0  0  0  0  0
   60.5680   51.7430   83.9300 O   0  0  0  0  0  0  0  0  0
   62.2300   53.9260   83.1610 C   0  0  0  0  0  0  0  0  0
   62.8970   55.2880   82.9780 C   0  0  0  0  0  0  0  0  0
   64.3410   55.1770   83.4490 C   0  0  0  0  0  0  0  0  0
   62.8450   55.7210   81.5140 C   0  0  0  0  0  0  0  0  0
   59.5060   51.8610   81.9680 N   0  0  0  0  0  0  0  0  0
   59.3240   50.4390   81.7600 C   0  0  0  0  0  0  0  0  0
   60.6130   49.8900   81.1740 C   0  0  0  0  0  0  0  0  0
   61.3950   50.6170   80.5730 O   0  0  0  0  0  0  0  0  0
   58.1580   50.1960   80.7960 C   0  0  0  0  0  0  0  0  0
   56.8570   50.8500   81.2340 C   0  0  0  0  0  0  0  0  0
   55.7500   50.6610   80.2230 C   0  0  0  0  0  0  0  0  0
   55.8210   51.1710   79.1050 O   0  0  0  0  0  0  0  0  0
   54.7200   49.9200   80.6100 N   0  0  0  0  0  0  0  0  0
  1  2  1  0  0  0
  2  3  1  0  0  0
  3  4  2  0  0  0
  2  5  1  0  0  0
  5  6  1  0  0  0
  5  7  1  0  0  0
  8  9  1  0  0  0
  9 10  1  0  0  0
 10 11  2  0  0  0
  9 12  1  0  0  0
 12 13  1  0  0  0
 13 14  2  0  0  0
 13 15  1  0  0  0
 16 17  1  0  0  0
 17 18  1  0  0  0
 18 19  2  0  0  0
 17 20  1  0  0  0
 20 21  1  0  0  0
 22 23  1  0  0  0
 23 24  1  0  0  0
 24 25  2  0  0  0
 23 26  1  0  0  0
 26 27  1  0  0  0
 26 28  1  0  0  0
 29 30  1  0  0  0
 30 31  1  0  0  0
 31 32  2  0  0  0
 30 33  1  0  0  0
 33 34  1  0  0  0
 34 35  1  0  0  0
 34 36  1  0  0  0
 37 38  1  0  0  0
 38 39  1  0  0  0
 39 40  2  0  0  0
 38 41  1  0  0  0
 41 42  1  0  0  0
 42 43  1  0  0  0
 43 44  2  0  0  0
 43 45  1  0  0  0
  3  8  1  0  0  0
 10 16  1  0  0  0
 18 22  1  0  0  0
 24 29  1  0  0  0
 31 37  1  0  0  0
M  END
